[General]
network = Net802154
#record-eventlog = true
#eventlog-message-detail-pattern = *:(not declaredOn(cMessage) and not declaredOn(cNamedObject) and not declaredOn(cObject))

num-rngs = 5
**.mobility.rng-0 = 1
**.wlan[*].mac.simpleidealwirelessMAC.rng-0 = 2
*.host[*].wlan[*].mac.IoTorii.rng-0 = 3
*.generator.rng-0 = 4

#debug-on-errors = true
fingerprint = "168c-b9a6/tplx"
tkenv-plugin-path = ../../../etc/plugins

#run settings
repeat = 200
sim-time-limit = 25s
*.statisticCollector.simulationTimeInterval = 20s

#otros parámetros:
**.vector-recording=true
#**.rx channel utilization (%).scalar-recording=true
**.scalar-recording=true

# nic settings

**.wlan[*].mac.simpleidealwirelessMAC.address = "auto"


**.wlan[*].radioType = "SimpleIdealRadio"         #radioType = default("Ieee802154NarrowbandScalarRadio")
**.wlan[*].radio.communicationRange = 9.6m
**.wlan[*].radio.displayCommunicationRange = true

#IoTorii settings
#Sink settings
**.host[0].wlan[*].mac.IoTorii.isCoreSwitch = true
**.host[0].wlan[*].mac.IoTorii.corePrefix = 1
**.host[0].wlan[*].mac.IoTorii.coreStartTime = 10s
**.host[0].wlan[*].mac.IoTorii.coreInterval = 100s
#Other nodes
**.host[*].wlan[*].mac.IoTorii.helloStartTime = 4s
**.host[*].wlan[*].mac.IoTorii.helloInterval = 100s

**.host[*].wlan[*].mac.IoTorii.maxJitter = 8ms # 8ms is equal to RPL DIO I min  # default = 5ms

#**.host[*].wlan[*].mac.IoTorii.maxHLMACs = 1   # each node can reach up to just 1 HLMAC address 
**.host[*].wlan[*].mac.IoTorii.maxHLMACs = 3   # each node can reach up to just 1 HLMAC address 
#**.host[*].wlan[*].mac.IoTorii.maxHLMACs = 5  # each node can reach up to 5 HLMAC address 
#**.host[*].wlan[*].mac.IoTorii.maxHLMACs = 10  # each node can reach up to 10 HLMAC address 
#**.host[*].wlan[*].mac.IoTorii.maxHLMACs = -1  # means unlimited

#network settings
**.host[*].networkLayer.neighbourDiscovery.staticLLAddressAssignment = true

# mobility
**.host*.mobilityType = "StationaryMobility"
**.host*.mobility.initFromDisplayString = false
**.host*.mobility.initialZ = 0
**.constraintAreaMinX = 0m
**.constraintAreaMinY = 0m
**.constraintAreaMinZ = 0m
**.constraintAreaMaxX = 100m
**.constraintAreaMaxY = 100m
**.constraintAreaMaxZ = 0m

[Config _2Nodes]
description = "2 nodes distributed in a 7m * 7m area"

*.numHosts = 2

#**.host[0].mobility.initialX = 7m 
#**.host[0].mobility.initialY = 7m

**.host[*].mobility.initialX = uniform(0m, 7m) 
**.host[*].mobility.initialY = uniform(0m, 7m)

[Config _5Nodes]
description = "5 nodes distributed in a 10m * 10m area"

*.numHosts = 5

#**.host[0].mobility.initialX = 5m 
#**.host[0].mobility.initialY = 5m

**.host[*].mobility.initialX = uniform(0m, 10m) 
**.host[*].mobility.initialY = uniform(0m, 10m)

[Config _10Nodes]
description = "10 nodes distributed in a 20m * 20m area"

*.numHosts = 10

#**.host[0].mobility.initialX = 10m 
#**.host[0].mobility.initialY = 10m

**.host[*].mobility.initialX = uniform(0m, 20m) 
**.host[*].mobility.initialY = uniform(0m, 20m)

[Config _15Nodes]
description = "15 nodes distributed in a 20m * 20m area"

*.numHosts = 15

#**.host[0].mobility.initialX = 10m 
#**.host[0].mobility.initialY = 10m

**.host[*].mobility.initialX = uniform(0m, 20m) 
**.host[*].mobility.initialY = uniform(0m, 20m)

[Config _20Nodes]
description = "20 nodes distributed in a 20m * 20m area"

*.numHosts = 20

#**.host[0].mobility.initialX = 10m 
#**.host[0].mobility.initialY = 10m

**.host[*].mobility.initialX = uniform(0m, 20m) 
**.host[*].mobility.initialY = uniform(0m, 20m)

[Config _25Nodes]
description = "25 nodes distributed in a 20m * 20m area"

*.numHosts = 25

#**.host[0].mobility.initialX = 10m 
#**.host[0].mobility.initialY = 10m

**.host[*].mobility.initialX = uniform(0m, 20m) 
**.host[*].mobility.initialY = uniform(0m, 20m)

[Config _50Nodes]
description = "50 nodes distributed in a 45m * 45m area"

*.numHosts = 50

#**.host[0].mobility.initialX = 20m 
#**.host[0].mobility.initialY = 20m

**.host[*].mobility.initialX = uniform(0m, 40m) 
**.host[*].mobility.initialY = uniform(0m, 40m)

[Config _100Nodes]
description = "100 nodes distributed in a 45m * 45m area"

*.numHosts = 100

#**.host[0].mobility.initialX = 20m 
#**.host[0].mobility.initialY = 20m

**.host[*].mobility.initialX = uniform(0m, 40m) 
**.host[*].mobility.initialY = uniform(0m, 40m)

[Config _200Nodes]
description = "200 nodes distributed in a 100m * 100m area"

*.numHosts = 200

#**.host[0].mobility.initialX = 40m 
#**.host[0].mobility.initialY = 40m

**.host[*].mobility.initialX = uniform(0m, 80m) 
**.host[*].mobility.initialY = uniform(0m, 80m)
